*SPEF "1481-1998"
*DESIGN "RISCV_Top"
*DATE "Thu Feb 20 02:58:31 2025"
*VENDOR "Synopsys, Inc."
*PROGRAM "icc2 /home/synopsys/icc2/O-2018.06-SP1/linux64/nwtn/bin/icc2_exec"
*VERSION "O-2018.06-SP1 Jul 17, 2018"
*DESIGN_FLOW "ICC2 SPEF DR"
*DIVIDER /
*DELIMITER :
*T_UNIT 1 NS
*C_UNIT 1 FF
*R_UNIT 1 OHM
*L_UNIT 1 HENRY

// XY_UNIT 1 UM
// PARASITIC_TECH maxTLU at 125.000 degree

*NAME_MAP
*1 clk
*2 reset
*3 vdd
*4 vss
*5 risc_v/HFSINV_2478_8
*6 risc_v/U33
*7 risc_v/U34
*8 risc_v/U35
*9 risc_v/U36
*10 risc_v/U37
*11 risc_v/U38
*12 risc_v/U39
*13 risc_v/U40
*14 risc_v/U41
*15 risc_v/U42
*16 risc_v/U43
*17 risc_v/U44
*18 risc_v/U45
*19 risc_v/U46
*20 risc_v/U47
*21 risc_v/U48
*22 risc_v/U49
*23 risc_v/U50
*24 risc_v/U51
*25 risc_v/U52
*26 risc_v/U53
*27 risc_v/U54
*28 risc_v/U55
*29 risc_v/U56
*30 risc_v/U57
*31 risc_v/U58
*32 risc_v/U59
*33 risc_v/U60
*34 risc_v/U61
*35 risc_v/U62
*36 risc_v/U63
*37 risc_v/U64
*38 risc_v/U65
*39 risc_v/U66
*40 risc_v/U67
*41 risc_v/U68
*42 risc_v/U69
*43 risc_v/U70
*44 risc_v/U71
*45 risc_v/U72
*46 risc_v/U73
*47 risc_v/U74
*48 risc_v/U75
*49 risc_v/U76
*50 risc_v/U77
*51 risc_v/U78
*52 risc_v/U79
*53 risc_v/U80
*54 risc_v/U81
*55 risc_v/U82
*56 risc_v/U83
*57 risc_v/U84
*58 risc_v/U85
*59 risc_v/U86
*60 risc_v/U87
*61 risc_v/U88
*62 risc_v/U89
*63 risc_v/U90
*64 risc_v/U91
*65 risc_v/U92
*66 risc_v/U93
*67 risc_v/U94
*68 risc_v/U95
*69 risc_v/U96
*70 risc_v/U97
*71 risc_v/U98
*72 risc_v/U99
*73 risc_v/U100
*74 risc_v/U101
*75 risc_v/U103
*76 risc_v/U104
*77 risc_v/U105
*78 risc_v/U106
*79 risc_v/U107
*80 risc_v/U108
*81 risc_v/U109
*82 risc_v/U110
*83 risc_v/U111
*84 risc_v/U112
*85 risc_v/U113
*86 risc_v/U114
*87 risc_v/U115
*88 risc_v/U116
*89 risc_v/U117
*90 risc_v/U118
*91 risc_v/U119
*92 risc_v/U120
*93 risc_v/U121
*94 risc_v/U122
*95 risc_v/U123
*96 risc_v/U124
*97 risc_v/U125
*98 risc_v/U126
*99 risc_v/U127
*100 risc_v/U128
*101 risc_v/U129
*102 risc_v/U130
*103 risc_v/U131
*104 risc_v/U132
*105 risc_v/U133
*106 risc_v/U134
*107 risc_v/U135
*108 risc_v/U136
*109 risc_v/U137
*110 risc_v/U158
*111 risc_v/U169
*112 risc_v/U171
*113 risc_v/U172
*114 risc_v/U173
*115 risc_v/U174
*116 risc_v/U175
*117 risc_v/U176
*118 risc_v/U177
*119 risc_v/U178
*120 risc_v/U179
*121 risc_v/U180
*122 risc_v/U181
*123 risc_v/U182
*124 risc_v/U183
*125 risc_v/U185
*126 risc_v/U186
*127 risc_v/U187
*128 risc_v/U188
*129 risc_v/U189
*130 risc_v/U190
*131 risc_v/U191
*132 risc_v/U192
*133 risc_v/U193
*134 risc_v/U194
*135 risc_v/U195
*136 risc_v/U196
*137 risc_v/U197
*138 risc_v/U198
*139 risc_v/U199
*140 risc_v/U200
*141 risc_v/U201
*142 risc_v/U202
*143 risc_v/U203
*144 risc_v/U204
*145 risc_v/U205
*146 risc_v/U206
*147 risc_v/U207
*148 risc_v/U208
*149 risc_v/U209
*150 risc_v/U210
*151 risc_v/U211
*152 risc_v/U212
*153 risc_v/U213
*154 risc_v/U214
*155 risc_v/U215
*156 risc_v/U216
*157 risc_v/U217
*158 risc_v/U218
*159 risc_v/U219
*160 risc_v/U220
*161 risc_v/U221
*162 risc_v/U222
*163 risc_v/U223
*164 risc_v/U224
*165 risc_v/U225
*166 risc_v/U226
*167 risc_v/U227
*168 risc_v/U228
*169 risc_v/U229
*170 risc_v/U230
*171 risc_v/U231
*172 risc_v/U232
*173 risc_v/U233
*174 risc_v/U234
*175 risc_v/U235
*176 risc_v/U236
*177 risc_v/U237
*178 risc_v/U238
*179 risc_v/U239
*180 risc_v/U240
*181 risc_v/U241
*182 risc_v/U242
*183 risc_v/U243
*184 risc_v/U244
*185 risc_v/U245
*186 risc_v/U246
*187 risc_v/U247
*188 risc_v/U248
*189 risc_v/U249
*190 risc_v/U250
*191 risc_v/U251
*192 risc_v/U252
*193 risc_v/U253
*194 risc_v/U254
*195 risc_v/U255
*196 risc_v/U256
*197 risc_v/U257
*198 risc_v/U258
*199 risc_v/U259
*200 risc_v/U260
*201 risc_v/U261
*202 risc_v/U262
*203 risc_v/U263
*204 risc_v/U264
*205 risc_v/U265
*206 risc_v/U266
*207 risc_v/U267
*208 risc_v/U268
*209 risc_v/U269
*210 risc_v/U270
*211 risc_v/U271
*212 risc_v/U272
*213 risc_v/U273
*214 risc_v/U274
*215 risc_v/U275
*216 risc_v/U277
*217 risc_v/U278
*218 risc_v/U279
*219 risc_v/U280
*220 risc_v/U281
*221 risc_v/U282
*222 risc_v/U284
*223 risc_v/U285
*224 risc_v/U286
*225 risc_v/U287
*226 risc_v/U288
*227 risc_v/U289
*228 risc_v/U290
*229 risc_v/U291
*230 risc_v/U293
*231 risc_v/U294
*232 risc_v/U295
*233 risc_v/U296
*234 risc_v/U297
*235 risc_v/U5
*236 cts_trgdly_897
*237 cts_inv_309839
*238 cts_inv_310840
*239 cts_inv_315845
*240 xofiller!SHFILL1_HVT!x0y0
*241 xofiller!SHFILL1_HVT!x16720y0
*242 xofiller!SHFILL1_HVT!x18240y0
*243 xofiller!SHFILL1_HVT!x56240y0
*244 xofiller!SHFILL1_HVT!x57760y0
*245 risc_v/U17
*246 risc_v/U18
*247 risc_v/U19
*248 risc_v/U20
*249 risc_v/U21
*250 risc_v/U22
*251 risc_v/U23
*252 risc_v/U24
*253 risc_v/U25
*254 risc_v/U26
*255 risc_v/U27
*256 risc_v/U28
*257 risc_v/U29
*258 risc_v/U30
*259 risc_v/U31
*260 risc_v/U32
*261 risc_v/U102
*262 risc_v/U138
*263 risc_v/U139
*264 risc_v/U140
*265 risc_v/U141
*266 risc_v/U142
*267 risc_v/U143
*268 risc_v/U144
*269 risc_v/U145
*270 risc_v/U146
*271 risc_v/U147
*272 risc_v/alu/HFSBUF_187_9
*273 risc_v/alu/HFSBUF_196_10
*274 risc_v/alu/HFSINV_2888_11
*275 xofiller!SHFILL1_HVT!x59280y0
*276 xofiller!SHFILL1_HVT!x60800y0
*277 xofiller!SHFILL1_HVT!x62320y0
*278 xofiller!SHFILL1_HVT!x63840y0
*279 xofiller!SHFILL1_HVT!x65360y0
*280 xofiller!SHFILL1_HVT!x66880y0
*281 risc_v/HFSINV_3421_16
*282 xofiller!SHFILL1_HVT!x68400y0
*283 xofiller!SHFILL1_HVT!x88160y0
*284 xofiller!SHFILL1_HVT!x89680y0
*285 xofiller!SHFILL1_HVT!x91200y0
*286 risc_v/alu/HFSINV_756_12
*287 risc_v/U159
*288 risc_v/U160
*289 risc_v/U161
*290 risc_v/U162
*291 risc_v/U163
*292 xofiller!SHFILL1_HVT!x92720y0
*293 xofiller!SHFILL1_HVT!x94240y0
*294 risc_v/U165
*295 risc_v/U166
*296 xofiller!SHFILL1_HVT!x95760y0
*297 xofiller!SHFILL1_HVT!x97280y0
*298 xofiller!SHFILL1_HVT!x98800y0
*299 xofiller!SHFILL1_HVT!x100320y0
*300 xofiller!SHFILL1_HVT!x101840y0
*301 xofiller!SHFILL1_HVT!x103360y0
*302 xofiller!SHFILL1_HVT!x104880y0
*303 xofiller!SHFILL1_HVT!x106400y0
*304 xofiller!SHFILL1_HVT!x107920y0
*305 xofiller!SHFILL1_HVT!x109440y0
*306 risc_v/U283
*307 risc_v/U292
*308 risc_v/U298
*309 risc_v/U299
*310 risc_v/U300
*311 risc_v/U301
*312 risc_v/U302
*313 risc_v/U303
*314 risc_v/U304
*315 risc_v/U305
*316 risc_v/U307
*317 risc_v/U308
*318 xofiller!SHFILL1_HVT!x110960y0
*319 xofiller!SHFILL1_HVT!x112480y0
*320 xofiller!SHFILL1_HVT!x114000y0
*321 xofiller!SHFILL1_HVT!x115520y0
*322 xofiller!SHFILL1_HVT!x135280y0
*323 xofiller!SHFILL1_HVT!x136800y0
*324 xofiller!SHFILL1_HVT!x138320y0
*325 xofiller!SHFILL1_HVT!x139840y0
*326 xofiller!SHFILL1_HVT!x141360y0
*327 xofiller!SHFILL1_HVT!x142880y0
*328 xofiller!SHFILL1_HVT!x144400y0
*329 xofiller!SHFILL1_HVT!x145920y0
*330 xofiller!SHFILL1_HVT!x147440y0
*331 xofiller!SHFILL1_HVT!x148960y0
*332 xofiller!SHFILL1_HVT!x150480y0
*333 xofiller!SHFILL1_HVT!x152000y0
*334 risc_v/U317
*335 risc_v/U318
*336 risc_v/U319
*337 risc_v/U320
*338 risc_v/U321
*339 risc_v/U322
*340 risc_v/U323
*341 risc_v/U324
*342 risc_v/U325
*343 risc_v/U326
*344 risc_v/U327
*345 risc_v/U328
*346 risc_v/U329
*347 risc_v/U330
*348 risc_v/U331
*349 risc_v/U332
*350 risc_v/U333
*351 risc_v/U334
*352 risc_v/U335
*353 risc_v/U336
*354 risc_v/U337
*355 risc_v/U338
*356 risc_v/U339
*357 risc_v/U340
*358 risc_v/U341
*359 risc_v/U342
*360 risc_v/U343
*361 risc_v/U344
*362 risc_v/U345
*363 risc_v/U346
*364 risc_v/U347
*365 risc_v/U348
*366 risc_v/U349
*367 risc_v/U350
*368 risc_v/U351
*369 risc_v/U352
*370 risc_v/U353
*371 risc_v/U354
*372 risc_v/U355
*373 risc_v/U356
*374 risc_v/U357
*375 risc_v/U358
*376 risc_v/U359
*377 risc_v/U360
*378 risc_v/U361
*379 risc_v/U362
*380 risc_v/U363
*381 risc_v/U364
*382 risc_v/U365
*383 risc_v/U366
*384 risc_v/U367
*385 risc_v/U368
*386 risc_v/U369
*387 risc_v/alu/HFSINV_916_13
*388 risc_v/alu/HFSINV_2595_14
*389 risc_v/alu/HFSINV_250_15
*390 risc_v/U374
*391 risc_v/U375
*392 risc_v/U376
*393 xofiller!SHFILL1_HVT!x153520y0
*394 xofiller!SHFILL1_HVT!x155040y0
*395 xofiller!SHFILL1_HVT!x156560y0
*396 xofiller!SHFILL1_HVT!x158080y0
*397 risc_v/U379
*398 xofiller!SHFILL1_HVT!x159600y0
*399 xofiller!SHFILL1_HVT!x179360y0
*400 risc_v/U382
*401 risc_v/U383
*402 risc_v/U384
*403 risc_v/U385
*404 risc_v/U386
*405 risc_v/U387
*406 risc_v/U388
*407 risc_v/U389
*408 risc_v/U390
*409 risc_v/U391
*410 risc_v/U392
*411 risc_v/U393
*412 risc_v/U394
*413 risc_v/U395
*414 risc_v/U396
*415 risc_v/U397
*416 risc_v/U398
*417 risc_v/U399
*418 risc_v/U400
*419 risc_v/U401
*420 risc_v/U402
*421 risc_v/U403
*422 risc_v/U404
*423 risc_v/U405
*424 risc_v/U406
*425 risc_v/U407
*426 risc_v/U408
*427 risc_v/U409
*428 risc_v/U410
*429 risc_v/U411
*430 risc_v/U412
*431 risc_v/U413
*432 risc_v/U414
*433 risc_v/U415
*434 risc_v/Program_counter/PC_Out_reg[28]
*435 risc_v/Program_counter/PC_Out_reg[26]
*436 risc_v/Program_counter/PC_Out_reg[27]
*437 risc_v/Program_counter/PC_Out_reg[22]
*438 risc_v/Program_counter/PC_Out_reg[5]
*439 risc_v/Program_counter/PC_Out_reg[10]
*440 risc_v/Program_counter/PC_Out_reg[12]
*441 risc_v/Program_counter/PC_Out_reg[13]
*442 risc_v/Program_counter/PC_Out_reg[15]
*443 risc_v/Program_counter/PC_Out_reg[20]
*444 risc_v/Program_counter/PC_Out_reg[23]
*445 risc_v/Program_counter/PC_Out_reg[1]
*446 risc_v/Program_counter/PC_Out_reg[0]
*447 risc_v/Program_counter/PC_Out_reg[31]
*448 risc_v/Program_counter/PC_Out_reg[18]
*449 risc_v/Program_counter/PC_Out_reg[2]
*450 risc_v/Program_counter/PC_Out_reg[19]
*451 risc_v/Program_counter/PC_Out_reg[9]
*452 risc_v/Program_counter/PC_Out_reg[11]
*453 risc_v/Program_counter/PC_Out_reg[29]
*454 risc_v/Program_counter/PC_Out_reg[30]
*455 risc_v/Program_counter/PC_Out_reg[7]
*456 risc_v/Program_counter/PC_Out_reg[8]
*457 risc_v/Program_counter/PC_Out_reg[6]
*458 risc_v/Program_counter/PC_Out_reg[14]
*459 risc_v/Program_counter/PC_Out_reg[16]
*460 risc_v/Program_counter/PC_Out_reg[17]
*461 risc_v/Program_counter/PC_Out_reg[24]
*462 risc_v/Program_counter/PC_Out_reg[25]
*463 risc_v/Program_counter/PC_Out_reg[3]
*464 risc_v/Program_counter/PC_Out_reg[4]
*465 risc_v/Program_counter/PC_Out_reg[21]
*466 risc_v/Program_counter/U3
*467 data_mem_sys/cache_contrl/HFSINV_989_1
*468 risc_v/Program_counter/HFSINV_1360_2
*469 data_mem_sys/cache_contrl/HFSINV_8652_3
*470 data_mem_sys/cache_contrl/HFSINV_11330_4
*471 risc_v/Contrl_Unit/U3
*472 risc_v/Contrl_Unit/U21
*473 risc_v/Contrl_Unit/U22
*474 risc_v/Contrl_Unit/U23
*475 risc_v/Contrl_Unit/U24
*476 risc_v/Contrl_Unit/U25
*477 risc_v/Contrl_Unit/U26
*478 risc_v/Contrl_Unit/U27
*479 risc_v/Contrl_Unit/U28
*480 risc_v/Contrl_Unit/U29
*481 risc_v/Contrl_Unit/U30
*482 risc_v/Contrl_Unit/U31
*483 risc_v/Contrl_Unit/U32
*484 risc_v/Contrl_Unit/U33
*485 risc_v/Contrl_Unit/U34
*486 risc_v/Contrl_Unit/U35
*487 risc_v/Contrl_Unit/U36
*488 risc_v/Contrl_Unit/U37
*489 risc_v/Contrl_Unit/U38
*490 risc_v/Contrl_Unit/U39
*491 risc_v/Contrl_Unit/U40
*492 risc_v/Contrl_Unit/U41
*493 risc_v/Contrl_Unit/U42
*494 risc_v/Contrl_Unit/U43
*495 risc_v/Contrl_Unit/U44
*496 risc_v/Contrl_Unit/U45
*497 risc_v/Contrl_Unit/U46
*498 risc_v/Contrl_Unit/U47
*499 risc_v/Contrl_Unit/U48
*500 risc_v/Contrl_Unit/U49
*501 risc_v/Contrl_Unit/U50
*502 risc_v/Contrl_Unit/U51
*503 risc_v/Contrl_Unit/U52
*504 risc_v/Contrl_Unit/U53
*505 risc_v/Contrl_Unit/U54
*506 risc_v/Contrl_Unit/U55
*507 risc_v/Contrl_Unit/U56
*508 risc_v/Contrl_Unit/U57
*509 risc_v/Contrl_Unit/U58
*510 risc_v/Contrl_Unit/U59
*511 risc_v/Contrl_Unit/U60
*512 risc_v/Contrl_Unit/U61
*513 risc_v/Contrl_Unit/U62
*514 risc_v/Contrl_Unit/U63
*515 risc_v/Contrl_Unit/U64
*516 risc_v/Contrl_Unit/U65
*517 risc_v/Contrl_Unit/U66
*518 risc_v/Contrl_Unit/U67
*519 risc_v/Contrl_Unit/U68
*520 risc_v/Contrl_Unit/U69
*521 risc_v/Contrl_Unit/U70
*522 risc_v/Contrl_Unit/U71
*523 risc_v/Contrl_Unit/U72
*524 risc_v/Contrl_Unit/U73
*525 risc_v/Contrl_Unit/U74
*526 risc_v/Contrl_Unit/U75
*527 risc_v/Contrl_Unit/U76
*528 risc_v/Contrl_Unit/U4
*529 risc_v/Contrl_Unit/U5
*530 risc_v/Contrl_Unit/U6
*531 risc_v/Contrl_Unit/U7
*532 risc_v/Contrl_Unit/U8
*533 risc_v/Contrl_Unit/U9
*534 risc_v/Contrl_Unit/U10
*535 risc_v/Contrl_Unit/U11
*536 risc_v/Contrl_Unit/U12
*537 risc_v/Contrl_Unit/U13
*538 risc_v/Contrl_Unit/U14
*539 risc_v/Contrl_Unit/U15
*540 risc_v/Contrl_Unit/U16
*541 risc_v/Contrl_Unit/U17
*542 risc_v/Contrl_Unit/U18
*543 risc_v/Contrl_Unit/U19
*544 risc_v/Contrl_Unit/U20
*545 risc_v/Immdiate_gen/U2
*546 risc_v/Immdiate_gen/U3
*547 risc_v/Immdiate_gen/U4
*548 risc_v/Immdiate_gen/U5
*549 risc_v/Immdiate_gen/U6
*550 xofiller!SHFILL1_HVT!x180880y0
*551 xofiller!SHFILL1_HVT!x200640y0
*552 risc_v/Immdiate_gen/U8
*553 risc_v/Immdiate_gen/U9
*554 xofiller!SHFILL1_HVT!x202160y0
*555 xofiller!SHFILL1_HVT!x203680y0
*556 risc_v/Immdiate_gen/U11
*557 risc_v/Immdiate_gen/U12
*558 risc_v/Immdiate_gen/U13
*559 risc_v/Immdiate_gen/U14
*560 risc_v/Immdiate_gen/U15
*561 risc_v/Immdiate_gen/U16
*562 risc_v/Immdiate_gen/U17
*563 risc_v/Immdiate_gen/U18
*564 risc_v/Immdiate_gen/U19
*565 risc_v/Immdiate_gen/U20
*566 risc_v/Immdiate_gen/U21
*567 risc_v/Immdiate_gen/U22
*568 risc_v/Immdiate_gen/U23
*569 risc_v/Immdiate_gen/U24
*570 risc_v/Immdiate_gen/U25
*571 risc_v/Immdiate_gen/U26
*572 risc_v/Immdiate_gen/U27
*573 risc_v/Immdiate_gen/U28
*574 risc_v/Immdiate_gen/U29
*575 risc_v/Immdiate_gen/U30
*576 risc_v/Immdiate_gen/U31
*577 risc_v/Immdiate_gen/U32
*578 risc_v/Immdiate_gen/U33
*579 risc_v/Immdiate_gen/U34
*580 risc_v/Immdiate_gen/U35
*581 risc_v/Immdiate_gen/U36
*582 risc_v/Immdiate_gen/U37
*583 risc_v/Immdiate_gen/U38
*584 risc_v/Immdiate_gen/U39
*585 risc_v/Immdiate_gen/U40
*586 risc_v/Immdiate_gen/U41
*587 risc_v/Immdiate_gen/U42
*588 risc_v/Immdiate_gen/U43
*589 risc_v/Immdiate_gen/U44
*590 risc_v/Immdiate_gen/U45
*591 risc_v/Immdiate_gen/U46
*592 risc_v/Immdiate_gen/U47
*593 risc_v/Immdiate_gen/U48
*594 risc_v/Immdiate_gen/U49
*595 risc_v/Immdiate_gen/U50
*596 risc_v/Immdiate_gen/U51
*597 risc_v/Immdiate_gen/U52
*598 risc_v/Immdiate_gen/U53
*599 risc_v/Immdiate_gen/U54
*600 risc_v/Immdiate_gen/U55
*601 risc_v/Immdiate_gen/U56
*602 risc_v/Immdiate_gen/U57
*603 risc_v/Immdiate_gen/U58
*604 risc_v/Immdiate_gen/U59
*605 risc_v/Immdiate_gen/U60
*606 risc_v/Immdiate_gen/U61
*607 risc_v/Immdiate_gen/U62
*608 risc_v/Immdiate_gen/U63
*609 risc_v/Immdiate_gen/U64
*610 risc_v/Immdiate_gen/U65
*611 risc_v/Immdiate_gen/U66
*612 risc_v/Immdiate_gen/U67
*613 risc_v/Immdiate_gen/U68
*614 risc_v/Immdiate_gen/U69
*615 risc_v/alu/U12
*616 risc_v/alu/U13
*617 risc_v/alu/U82
*618 risc_v/alu/U83
*619 risc_v/alu/U84
*620 risc_v/alu/U86
*621 risc_v/alu/U87
*622 risc_v/alu/U88
*623 risc_v/alu/U89
*624 risc_v/alu/U90
*625 risc_v/alu/U94
*626 risc_v/alu/U95
*627 risc_v/alu/U99
*628 risc_v/alu/U100
*629 risc_v/alu/U104
*630 risc_v/alu/U105
*631 risc_v/alu/U109
*632 risc_v/alu/U110
*633 risc_v/alu/U112
*634 risc_v/alu/U113
*635 risc_v/alu/U114
*636 risc_v/alu/U115
*637 risc_v/alu/U119
*638 risc_v/alu/U120
*639 risc_v/alu/U121
*640 risc_v/alu/U122
*641 risc_v/alu/U123
*642 risc_v/alu/U124
*643 risc_v/alu/U125
*644 risc_v/alu/U126
*645 risc_v/alu/U127
*646 risc_v/alu/U128
*647 risc_v/alu/U129
*648 risc_v/alu/U130
*649 risc_v/alu/U131
*650 risc_v/alu/U132
*651 risc_v/alu/U133
*652 risc_v/alu/U134
*653 risc_v/alu/U135
*654 risc_v/alu/U136
*655 risc_v/alu/U137
*656 risc_v/alu/U138
*657 risc_v/alu/U139
*658 risc_v/alu/U140
*659 risc_v/alu/U141
*660 risc_v/alu/U142
*661 risc_v/alu/U143
*662 risc_v/alu/U144
*663 risc_v/alu/U145
*664 risc_v/alu/U146
*665 risc_v/alu/U147
*666 risc_v/alu/U148
*667 risc_v/alu/U149
*668 risc_v/alu/U150
*669 risc_v/alu/U151
*670 risc_v/alu/U152
*671 risc_v/alu/U153
*672 risc_v/alu/U154
*673 risc_v/alu/U155
*674 risc_v/alu/U156
*675 risc_v/alu/U157
*676 risc_v/alu/U158
*677 risc_v/alu/U159
*678 risc_v/alu/U160
*679 risc_v/alu/U161
*680 risc_v/alu/U162
*681 risc_v/alu/U163
*682 risc_v/alu/U164
*683 risc_v/alu/U165
*684 risc_v/alu/U166
*685 risc_v/alu/U167
*686 risc_v/alu/U168
*687 risc_v/alu/U169
*688 risc_v/alu/U170
*689 risc_v/alu/U171
*690 risc_v/alu/U172
*691 risc_v/alu/U173
*692 risc_v/alu/U174
*693 risc_v/alu/U175
*694 risc_v/alu/U179
*695 risc_v/alu/U180
*696 risc_v/alu/U181
*697 risc_v/alu/U182
*698 risc_v/alu/U183
*699 risc_v/alu/U184
*700 risc_v/alu/U185
*701 risc_v/alu/U186
*702 risc_v/alu/U187
*703 risc_v/alu/U188
*704 risc_v/alu/U189
*705 risc_v/alu/U190
*706 risc_v/alu/U191
*707 risc_v/alu/U192
*708 risc_v/alu/U193
*709 risc_v/alu/U194
*710 risc_v/alu/U195
*711 risc_v/alu/U196
*712 risc_v/alu/U197
*713 risc_v/alu/U198
*714 risc_v/alu/U199
*715 risc_v/alu/U200
*716 risc_v/alu/U201
*717 risc_v/alu/U202
*718 risc_v/alu/U203
*719 risc_v/alu/U204
*720 risc_v/alu/U205
*721 risc_v/alu/U206
*722 risc_v/alu/U207
*723 risc_v/alu/U208
*724 risc_v/alu/U209
*725 risc_v/alu/U210
*726 risc_v/alu/U211
*727 risc_v/alu/U212
*728 risc_v/alu/U213
*729 risc_v/alu/U214
*730 risc_v/alu/U215
*731 risc_v/alu/U216
*732 risc_v/alu/U217
*733 risc_v/alu/U218
*734 risc_v/alu/U219
*735 risc_v/alu/U220
*736 risc_v/alu/U221
*737 risc_v/alu/U222
*738 risc_v/alu/U223
*739 risc_v/alu/U224
*740 risc_v/alu/U225
*741 risc_v/alu/U226
*742 risc_v/alu/U227
*743 risc_v/alu/U228
*744 risc_v/alu/U229
*745 risc_v/alu/U230
*746 risc_v/alu/U231
*747 risc_v/alu/U232
*748 risc_v/alu/U233
*749 risc_v/alu/U234
*750 risc_v/alu/U235
*751 risc_v/alu/U239
*752 risc_v/alu/U240
*753 risc_v/alu/U244
*754 risc_v/alu/U245
*755 risc_v/alu/U246
*756 risc_v/alu/U247
*757 risc_v/alu/U248
*758 risc_v/alu/U249
*759 risc_v/alu/U250
*760 risc_v/alu/U251
*761 risc_v/alu/U252
*762 risc_v/alu/U253
*763 risc_v/alu/U254
*764 risc_v/alu/U255
*765 risc_v/alu/U256
*766 risc_v/alu/U257
*767 risc_v/alu/U258
*768 risc_v/alu/U259
*769 risc_v/alu/U260
*770 risc_v/alu/U2
*771 risc_v/alu/U4
*772 risc_v/alu/U5
*773 risc_v/alu/U6
*774 risc_v/alu/U7
*775 risc_v/alu/U8
*776 risc_v/alu/U14
*777 risc_v/alu/U15
*778 risc_v/alu/U16
*779 risc_v/alu/U17
*780 risc_v/alu/U18
*781 risc_v/alu/U19
*782 risc_v/alu/U20
*783 risc_v/alu/U21
*784 risc_v/alu/U22
*785 risc_v/alu/U23
*786 risc_v/alu/U24
*787 risc_v/alu/U25
*788 risc_v/alu/U26
*789 risc_v/alu/U27
*790 risc_v/alu/U28
*791 xofiller!SHFILL1_HVT!x205200y0
*792 xofiller!SHFILL1_HVT!x206720y0
*793 xofiller!SHFILL1_HVT!x208240y0
*794 xofiller!SHFILL1_HVT!x209760y0
*795 xofiller!SHFILL1_HVT!x211280y0
*796 xofiller!SHFILL1_HVT!x212800y0
*797 xofiller!SHFILL1_HVT!x214320y0
*798 xofiller!SHFILL1_HVT!x215840y0
*799 risc_v/alu/U33
*800 xofiller!SHFILL1_HVT!x224960y0
*801 xofiller!SHFILL1_HVT!x234080y0
*802 xofiller!SHFILL1_HVT!x235600y0
*803 xofiller!SHFILL1_HVT!x237120y0
*804 xofiller!SHFILL1_HVT!x256880y0
*805 xofiller!SHFILL1_HVT!x258400y0
*806 xofiller!SHFILL1_HVT!x259920y0
*807 xofiller!SHFILL1_HVT!x261440y0
*808 xofiller!SHFILL1_HVT!x262960y0
*809 xofiller!SHFILL1_HVT!x264480y0
*810 xofiller!SHFILL1_HVT!x284240y0
*811 xofiller!SHFILL1_HVT!x285760y0
*812 xofiller!SHFILL1_HVT!x287280y0
*813 xofiller!SHFILL1_HVT!x288800y0
*814 xofiller!SHFILL1_HVT!x290320y0
*815 xofiller!SHFILL1_HVT!x291840y0
*816 risc_v/alu/U42
*817 xofiller!SHFILL1_HVT!x293360y0
*818 xofiller!SHFILL1_HVT!x294880y0
*819 risc_v/alu/U44
*820 risc_v/alu/U45
*821 xofiller!SHFILL1_HVT!x296400y0
*822 xofiller!SHFILL1_HVT!x297920y0
*823 xofiller!SHFILL1_HVT!x299440y0
*824 xofiller!SHFILL1_HVT!x300960y0
*825 risc_v/alu/U48
*826 xofiller!SHFILL1_HVT!x302480y0
*827 xofiller!SHFILL1_HVT!x304000y0
*828 xofiller!SHFILL1_HVT!x320720y0
*829 xofiller!SHFILL1_HVT!x322240y0
*830 xofiller!SHFILL1_HVT!x323760y0
*831 xofiller!SHFILL1_HVT!x343520y0
*832 xofiller!SHFILL1_HVT!x345040y0
*833 xofiller!SHFILL1_HVT!x346560y0
*834 xofiller!SHFILL1_HVT!x355680y0
*835 xofiller!SHFILL1_HVT!x357200y0
*836 xofiller!SHFILL1_HVT!x358720y0
*837 xofiller!SHFILL1_HVT!x360240y0
*838 risc_v/alu/U55
*839 risc_v/alu/U56
*840 risc_v/alu/U57
*841 risc_v/alu/U58
*842 risc_v/alu/U59
*843 risc_v/alu/U60
*844 risc_v/alu/U61
*845 risc_v/alu/U62
*846 risc_v/alu/U63
*847 risc_v/alu/U64
*848 risc_v/alu/U65
*849 risc_v/alu/U66
*850 risc_v/alu/U67
*851 risc_v/alu/U68
*852 risc_v/alu/U69
*853 risc_v/alu/U70
*854 risc_v/alu/U71
*855 risc_v/alu/U72
*856 risc_v/alu/U73
*857 risc_v/alu/U74
*858 risc_v/alu/U75
*859 risc_v/alu/U76
*860 risc_v/alu/U77
*861 risc_v/alu/U78
*862 risc_v/alu/U79
*863 risc_v/alu/U80
*864 risc_v/alu/U81
*865 risc_v/alu/U85
*866 risc_v/alu/U91
*867 risc_v/alu/U92
*868 risc_v/alu/U93
*869 risc_v/alu/U96
*870 risc_v/alu/U97
*871 risc_v/alu/U98
*872 risc_v/alu/U101
*873 risc_v/alu/U102
*874 risc_v/alu/U103
*875 risc_v/alu/U106
*876 risc_v/alu/U107
*877 risc_v/alu/U108
*878 risc_v/alu/U111
*879 risc_v/alu/U116
*880 risc_v/alu/U117
*881 xofiller!SHFILL1_HVT!x361760y0
*882 xofiller!SHFILL1_HVT!x363280y0
*883 risc_v/alu/U176
*884 risc_v/alu/U177
*885 risc_v/alu/U178
*886 risc_v/alu/U236
*887 risc_v/alu/U237
*888 risc_v/alu/U238
*889 risc_v/alu/U241
*890 risc_v/alu/U242
*891 risc_v/alu/U243
*892 risc_v/alu/U261
*893 risc_v/alu/U262
*894 risc_v/alu/U263
*895 risc_v/alu/U264
*896 risc_v/alu/U265
*897 risc_v/alu/U266
*898 risc_v/alu/U267
*899 risc_v/alu/U268
*900 risc_v/alu/U269
*901 risc_v/alu/U270
*902 risc_v/alu/U271
*903 risc_v/alu/U272
*904 risc_v/alu/U273
*905 risc_v/alu/U274
*906 risc_v/alu/U275
*907 risc_v/alu/U276
*908 risc_v/alu/U277
*909 risc_v/alu/U278
*910 xofiller!SHFILL1_HVT!x364800y0
*911 xofiller!SHFILL1_HVT!x366320y0
*912 xofiller!SHFILL1_HVT!x367840y0
*913 xofiller!SHFILL1_HVT!x369360y0
*914 xofiller!SHFILL1_HVT!x370880y0
*915 xofiller!SHFILL1_HVT!x372400y0
*916 xofiller!SHFILL1_HVT!x373920y0
*917 xofiller!SHFILL1_HVT!x393680y0
*918 xofiller!SHFILL1_HVT!x395200y0
*919 xofiller!SHFILL1_HVT!x422560y0
*920 xofiller!SHFILL1_HVT!x424080y0
*921 xofiller!SHFILL1_HVT!x425600y0
*922 xofiller!SHFILL1_HVT!x427120y0
*923 xofiller!SHFILL1_HVT!x428640y0
*924 risc_v/alu/U286
*925 risc_v/alu/U287
*926 risc_v/alu/U288
*927 risc_v/alu/U289
*928 risc_v/alu/U290
*929 risc_v/alu/U291
*930 risc_v/alu/U292
*931 risc_v/alu/U293
*932 risc_v/alu/U294
*933 risc_v/alu/U295
*934 risc_v/alu/U296
*935 risc_v/alu/U297
*936 risc_v/alu/U298
*937 risc_v/alu/U299
*938 risc_v/alu/U300
*939 risc_v/alu/U301
*940 risc_v/alu/U302
*941 risc_v/alu/U303
*942 risc_v/alu/U304
*943 risc_v/alu/U305
*944 risc_v/alu/U306
*945 risc_v/alu/U307
*946 risc_v/alu/U308
*947 risc_v/alu/U309
*948 risc_v/alu/U310
*949 risc_v/alu/U311
*950 risc_v/alu/U312
*951 risc_v/alu/U313
*952 risc_v/alu/U314
*953 risc_v/alu/U315
*954 risc_v/alu/U316
*955 risc_v/alu/U317
*956 risc_v/alu/U318
*957 risc_v/alu/U319
*958 risc_v/alu/sll_20/M1_4_31
*959 risc_v/alu/sll_20/M1_4_30
*960 risc_v/alu/sll_20/M1_4_29
*961 risc_v/alu/sll_20/M1_4_28
*962 risc_v/alu/sll_20/M1_4_27
*963 risc_v/alu/sll_20/M1_4_26
*964 risc_v/alu/sll_20/M1_4_25
*965 risc_v/alu/sll_20/M1_4_24
*966 risc_v/alu/sll_20/M1_4_23
*967 risc_v/alu/sll_20/M1_4_22
*968 risc_v/alu/sll_20/M1_4_21
*969 risc_v/alu/sll_20/M1_4_20
*970 risc_v/alu/sll_20/M1_4_19
*971 risc_v/alu/sll_20/M1_4_18
*972 risc_v/alu/sll_20/M1_4_17
*973 risc_v/alu/sll_20/M1_4_16
*974 risc_v/alu/sll_20/M1_3_31
*975 risc_v/alu/sll_20/M1_3_30
*976 risc_v/alu/sll_20/M1_3_29
*977 risc_v/alu/sll_20/M1_3_28
*978 risc_v/alu/sll_20/M1_3_27
*979 risc_v/alu/sll_20/M1_3_26
*980 risc_v/alu/sll_20/M1_3_25
*981 risc_v/alu/sll_20/M1_3_24
*982 risc_v/alu/sll_20/M1_3_23
*983 risc_v/alu/sll_20/M1_3_22
*984 risc_v/alu/sll_20/M1_3_21
*985 risc_v/alu/sll_20/M1_3_20
*986 risc_v/alu/sll_20/M1_3_19
*987 risc_v/alu/sll_20/M1_3_18
*988 risc_v/alu/sll_20/M1_3_17
*989 risc_v/alu/sll_20/M1_3_16
*990 risc_v/alu/sll_20/M1_3_15
*991 risc_v/alu/sll_20/M1_3_14
*992 risc_v/alu/sll_20/M1_3_13
*993 risc_v/alu/sll_20/M1_3_12
*994 risc_v/alu/sll_20/M1_3_11
*995 risc_v/alu/sll_20/M1_3_10
*996 risc_v/alu/sll_20/M1_3_9
*997 risc_v/alu/sll_20/M1_3_8
*998 risc_v/alu/sll_20/M1_2_31
*999 risc_v/alu/sll_20/M1_2_30
*1000 risc_v/alu/sll_20/M1_2_29
*1001 risc_v/alu/sll_20/M1_2_28
*1002 risc_v/alu/sll_20/M1_2_27
*1003 risc_v/alu/sll_20/M1_2_26
*1004 risc_v/alu/sll_20/M1_2_25
*1005 risc_v/alu/sll_20/M1_2_24
*1006 risc_v/alu/sll_20/M1_2_23
*1007 risc_v/alu/sll_20/M1_2_22
*1008 risc_v/alu/sll_20/M1_2_21
*1009 risc_v/alu/sll_20/M1_2_20
*1010 risc_v/alu/sll_20/M1_2_19
*1011 risc_v/alu/sll_20/M1_2_18
*1012 risc_v/alu/sll_20/M1_2_17
*1013 risc_v/alu/sll_20/M1_2_16
*1014 risc_v/alu/sll_20/M1_2_15
*1015 risc_v/alu/sll_20/M1_2_14
*1016 risc_v/alu/sll_20/M1_2_13
*1017 risc_v/alu/sll_20/M1_2_12
*1018 risc_v/alu/sll_20/M1_2_11
*1019 risc_v/alu/sll_20/M1_2_10
*1020 risc_v/alu/sll_20/M1_2_9
*1021 risc_v/alu/sll_20/M1_2_8
*1022 risc_v/alu/sll_20/M1_2_7
*1023 risc_v/alu/sll_20/M1_2_6
*1024 risc_v/alu/sll_20/M1_2_5
*1025 risc_v/alu/sll_20/M1_2_4
*1026 risc_v/alu/sll_20/M1_1_31
*1027 risc_v/alu/sll_20/M1_1_30
*1028 risc_v/alu/sll_20/M1_1_29
*1029 risc_v/alu/sll_20/M1_1_28
*1030 risc_v/alu/sll_20/M1_1_27
*1031 risc_v/alu/sll_20/M1_1_26
*1032 risc_v/alu/sll_20/M1_1_25
*1033 risc_v/alu/sll_20/M1_1_24
*1034 risc_v/alu/sll_20/M1_1_23
*1035 risc_v/alu/sll_20/M1_1_22
*1036 risc_v/alu/sll_20/M1_1_21
*1037 risc_v/alu/sll_20/M1_1_20
*1038 risc_v/alu/sll_20/M1_1_19
*1039 risc_v/alu/sll_20/M1_1_18
*1040 risc_v/alu/sll_20/M1_1_17
*1041 risc_v/alu/sll_20/M1_1_16
*1042 risc_v/alu/sll_20/M1_1_15
*1043 risc_v/alu/sll_20/M1_1_14
*1044 risc_v/alu/sll_20/M1_1_13
*1045 risc_v/alu/sll_20/M1_1_12
*1046 risc_v/alu/sll_20/M1_1_11
*1047 risc_v/alu/sll_20/M1_1_10
*1048 risc_v/alu/sll_20/M1_1_9
*1049 risc_v/alu/sll_20/M1_1_8
*1050 risc_v/alu/sll_20/M1_1_7
*1051 risc_v/alu/sll_20/M1_1_6
*1052 risc_v/alu/sll_20/M1_1_5
*1053 risc_v/alu/sll_20/M1_1_4
*1054 risc_v/alu/sll_20/M1_1_3
*1055 risc_v/alu/sll_20/M1_1_2
*1056 risc_v/alu/sll_20/M1_0_31
*1057 risc_v/alu/sll_20/M1_0_30
*1058 risc_v/alu/sll_20/M1_0_29
*1059 risc_v/alu/sll_20/M1_0_28
*1060 risc_v/alu/sll_20/M1_0_27
*1061 risc_v/alu/sll_20/M1_0_26
*1062 risc_v/alu/sll_20/M1_0_25
*1063 risc_v/alu/sll_20/M1_0_24
*1064 risc_v/alu/sll_20/M1_0_23
*1065 risc_v/alu/sll_20/M1_0_22
*1066 risc_v/alu/sll_20/M1_0_21
*1067 risc_v/alu/sll_20/M1_0_20
*1068 risc_v/alu/sll_20/M1_0_19
*1069 risc_v/alu/sll_20/M1_0_18
*1070 risc_v/alu/sll_20/M1_0_17
*1071 risc_v/alu/sll_20/M1_0_16
*1072 risc_v/alu/sll_20/M1_0_15
*1073 risc_v/alu/sll_20/M1_0_14
*1074 risc_v/alu/sll_20/M1_0_13
*1075 risc_v/alu/sll_20/M1_0_12
*1076 risc_v/alu/sll_20/M1_0_11
*1077 risc_v/alu/sll_20/M1_0_10
*1078 risc_v/alu/sll_20/M1_0_9
*1079 risc_v/alu/sll_20/M1_0_8
*1080 risc_v/alu/sll_20/M1_0_7
*1081 risc_v/alu/sll_20/M1_0_6
*1082 risc_v/alu/sll_20/M1_0_5
*1083 risc_v/alu/sll_20/M1_0_4
*1084 risc_v/alu/sll_20/M1_0_3
*1085 risc_v/alu/sll_20/M1_0_2
*1086 risc_v/alu/sll_20/M1_0_1
*1087 xofiller!SHFILL1_HVT!x430160y0
*1088 xofiller!SHFILL1_HVT!x431680y0
*1089 xofiller!SHFILL1_HVT!x433200y0
*1090 xofiller!SHFILL1_HVT!x434720y0
*1091 xofiller!SHFILL1_HVT!x436240y0
*1092 xofiller!SHFILL1_HVT!x437760y0
*1093 xofiller!SHFILL1_HVT!x439280y0
*1094 xofiller!SHFILL1_HVT!x440800y0
*1095 xofiller!SHFILL1_HVT!x442320y0
*1096 xofiller!SHFILL1_HVT!x443840y0
*1097 xofiller!SHFILL1_HVT!x445360y0
*1098 xofiller!SHFILL1_HVT!x446880y0
*1099 xofiller!SHFILL1_HVT!x456000y0
*1100 xofiller!SHFILL1_HVT!x457520y0
*1101 xofiller!SHFILL1_HVT!x459040y0
*1102 xofiller!SHFILL1_HVT!x460560y0
*1103 xofiller!SHFILL1_HVT!x462080y0
*1104 xofiller!SHFILL1_HVT!x463600y0
*1105 xofiller!SHFILL1_HVT!x465120y0
*1106 xofiller!SHFILL1_HVT!x466640y0
*1107 xofiller!SHFILL1_HVT!x468160y0
*1108 xofiller!SHFILL1_HVT!x487920y0
*1109 xofiller!SHFILL1_HVT!x507680y0
*1110 xofiller!SHFILL1_HVT!x509200y0
*1111 xofiller!SHFILL1_HVT!x510720y0
*1112 xofiller!SHFILL1_HVT!x512240y0
*1113 xofiller!SHFILL1_HVT!x513760y0
*1114 xofiller!SHFILL1_HVT!x515280y0
*1115 xofiller!SHFILL1_HVT!x532000y0
*1116 xofiller!SHFILL1_HVT!x551760y0
*1117 xofiller!SHFILL1_HVT!x553280y0
*1118 xofiller!SHFILL1_HVT!x591280y0
*1119 xofiller!SHFILL1_HVT!x592800y0
*1120 xofiller!SHFILL1_HVT!x594320y0
*1121 xofiller!SHFILL1_HVT!x595840y0
*1122 xofiller!SHFILL1_HVT!x615600y0
*1123 xofiller!SHFILL1_HVT!x617120y0
*1124 xofiller!SHFILL1_HVT!x618640y0
*1125 xofiller!SHFILL1_HVT!x620160y0
*1126 xofiller!SHFILL1_HVT!x621680y0
*1127 xofiller!SHFILL1_HVT!x623200y0
*1128 xofiller!SHFILL1_HVT!x624720y0
*1129 xofiller!SHFILL1_HVT!x626240y0
*1130 xofiller!SHFILL1_HVT!x627760y0
*1131 xofiller!SHFILL1_HVT!x629280y0
*1132 xofiller!SHFILL1_HVT!x638400y0
*1133 xofiller!SHFILL1_HVT!x639920y0
*1134 xofiller!SHFILL1_HVT!x641440y0
*1135 xofiller!SHFILL1_HVT!x642960y0
*1136 xofiller!SHFILL1_HVT!x662720y0
*1137 xofiller!SHFILL1_HVT!x664240y0
*1138 xofiller!SHFILL1_HVT!x665760y0
*1139 xofiller!SHFILL1_HVT!x667280y0
*1140 xofiller!SHFILL1_HVT!x668800y0
*1141 xofiller!SHFILL1_HVT!x670320y0
*1142 xofiller!SHFILL1_HVT!x671840y0
*1143 risc_v/alu/sll_20/U31
*1144 risc_v/alu/sll_20/U32
*1145 risc_v/alu/sll_20/U33
*1146 risc_v/alu/sll_20/U34
*1147 risc_v/alu/sll_20/U35
*1148 risc_v/alu/sll_20/U36
*1149 risc_v/alu/sll_20/U37
*1150 risc_v/alu/sll_20/U38
*1151 risc_v/alu/sll_20/U39
*1152 risc_v/alu/sll_20/U40
*1153 risc_v/alu/sll_20/U41
*1154 risc_v/alu/sll_20/U42
*1155 risc_v/alu/sll_20/U43
*1156 risc_v/alu/sll_20/U44
*1157 risc_v/alu/sll_20/U45
*1158 risc_v/alu/sll_20/U46
*1159 risc_v/alu/sll_20/U47
*1160 risc_v/alu/sll_20/U48
*1161 risc_v/alu/sll_20/U49
*1162 risc_v/alu/sll_20/U50
*1163 risc_v/alu/sll_20/U51
*1164 risc_v/alu/sll_20/U52
*1165 risc_v/alu/sll_20/U53
*1166 risc_v/alu/sll_20/U54
*1167 risc_v/alu/sll_20/U55
*1168 risc_v/alu/sll_20/U56
*1169 risc_v/alu/sll_20/U57
*1170 risc_v/alu/sll_20/U58
*1171 risc_v/alu/sll_20/U59
*1172 risc_v/alu/sll_20/U60
*1173 risc_v/alu/sll_20/U61
*1174 risc_v/alu/sub_16/U2_31
*1175 risc_v/alu/sub_16/U2_30
*1176 risc_v/alu/sub_16/U2_29
*1177 risc_v/alu/sub_16/U2_28
*1178 risc_v/alu/sub_16/U2_27
*1179 risc_v/alu/sub_16/U2_26
*1180 risc_v/alu/sub_16/U2_25
*1181 risc_v/alu/sub_16/U2_24
*1182 risc_v/alu/sub_16/U2_23
*1183 risc_v/alu/sub_16/U2_22
*1184 risc_v/alu/sub_16/U2_21
*1185 risc_v/alu/sub_16/U2_20
*1186 risc_v/alu/sub_16/U2_19
*1187 risc_v/alu/sub_16/U2_18
*1188 risc_v/alu/sub_16/U2_17
*1189 risc_v/alu/sub_16/U2_16
*1190 risc_v/alu/sub_16/U2_15
*1191 risc_v/alu/sub_16/U2_14
*1192 risc_v/alu/sub_16/U2_13
*1193 risc_v/alu/sub_16/U2_12
*1194 risc_v/alu/sub_16/U2_11
*1195 risc_v/alu/sub_16/U2_10
*1196 risc_v/alu/sub_16/U2_9
*1197 risc_v/alu/sub_16/U2_8
*1198 risc_v/alu/sub_16/U2_7